EESchema Schematic File Version 4
LIBS:power
LIBS:device
LIBS:Simulation_SPICE
EELAYER 29 0
EELAYER END
$Descr A4 11693 8268
Sheet 1 1
Title "Volume 3 Lesson 15 - Diode Clamper"
$EndDescr
$Comp
L Simulation_SPICE:VSIN V1
U 1 1 751500001
P 2500 3900
F 0 "V1" H 2630 3991 50 0000 L CNN
F 1 "SIN(0 2 500)" H 2630 3900 50 0000 L CNN
	1    2500 3900
	1 0 0 -1
$EndComp
$Comp
L Device:C C1
U 1 1 751500002
P 4700 3000
F 0 "C1" V 4448 3000 50 0000 C CNN
F 1 "1u" V 4539 3000 50 0000 C CNN
	1    4700 3000
	0 1 1 0
$EndComp
$Comp
L Device:D D1
U 1 1 751500003
P 6500 3900
F 0 "D1" V 6454 3980 50 0000 L CNN
F 1 "DCL" V 6545 3980 50 0000 L CNN
	1    6500 3900
	0 1 1 0
$EndComp
$Comp
L Device:R RLOAD
U 1 1 751500004
P 7800 3900
F 0 "RLOAD" H 7870 3946 50 0000 L CNN
F 1 "47k" H 7870 3855 50 0000 L CNN
	1    7800 3900
	1 0 0 -1
$EndComp
$Comp
L power:0 #PWR07501
U 1 1 751500005
P 5000 4800
F 0 "#PWR07501" H 5000 4550 50 0001 C CNN
F 1 "0" H 5005 4627 50 0000 C CNN
	1    5000 4800
	1 0 0 -1
$EndComp
Wire Wire Line
	2500 3600 2500 3000
Wire Wire Line
	2500 3000 4550 3000
Wire Wire Line
	4850 3000 7800 3000
Wire Wire Line
	6500 3000 6500 3750
Wire Wire Line
	7800 3000 7800 3750
Wire Wire Line
	6500 4050 6500 4600
Wire Wire Line
	7800 4050 7800 4600
Wire Wire Line
	6500 4600 7800 4600
Wire Wire Line
	2500 4200 2500 4600
Wire Wire Line
	2500 4600 6500 4600
Wire Wire Line
	5000 4600 5000 4800
Text Notes 8200 2800 0 60 ~ 0
.tran 2u 20m startup
$EndSCHEMATC
