EESchema Schematic File Version 4
LIBS:power
LIBS:device
LIBS:Simulation_SPICE
EELAYER 29 0
EELAYER END
$Descr A4 11693 8268
Sheet 1 1
Title "Volume 2 Lesson 21 - Design Review Rail Section"
$EndDescr
$Comp
L Simulation_SPICE:VSOURCE VREG
U 1 1 412100001
P 2500 4000
F 0 "VREG" H 2630 4091 50 0000 L CNN
F 1 "5" H 2630 4000 50 0000 L CNN
	1    2500 4000
	1 0 0 -1
$EndComp
$Comp
L Device:R RS
U 1 1 412100002
P 4100 3000
F 0 "RS" V 3893 3000 50 0000 C CNN
F 1 "20m" V 3984 3000 50 0000 C CNN
	1    4100 3000
	0 1 1 0
$EndComp
$Comp
L Device:L LS
U 1 1 412100003
P 5500 3000
F 0 "LS" V 5690 3000 50 0000 C CNN
F 1 "4n" V 5599 3000 50 0000 C CNN
	1    5500 3000
	0 -1 -1 0
$EndComp
$Comp
L Device:C CLOCAL
U 1 1 412100004
P 7000 3900
F 0 "CLOCAL" H 7115 3946 50 0000 L CNN
F 1 "680u" H 7115 3855 50 0000 L CNN
	1    7000 3900
	1 0 0 -1
$EndComp
$Comp
L Simulation_SPICE:ISOURCE ILOAD
U 1 1 412100005
P 8500 3900
F 0 "ILOAD" H 8630 3991 50 0000 L CNN
F 1 "PULSE(0.1 2.1 1u 20n 20n 40u 200u)" H 8630 3900 50 0000 L CNN
	1    8500 3900
	1 0 0 -1
$EndComp
$Comp
L power:0 #PWR04101
U 1 1 412100006
P 5500 4900
F 0 "#PWR04101" H 5500 4650 50 0001 C CNN
F 1 "0" H 5505 4727 50 0000 C CNN
	1    5500 4900
	1 0 0 -1
$EndComp
Wire Wire Line
	2500 3700 2500 3000
Wire Wire Line
	2500 3000 3950 3000
Wire Wire Line
	4250 3000 5350 3000
Wire Wire Line
	5650 3000 8500 3000
Wire Wire Line
	7000 3000 7000 3750
Wire Wire Line
	8500 3000 8500 3600
Wire Wire Line
	7000 4050 7000 4600
Wire Wire Line
	8500 4200 8500 4600
Wire Wire Line
	7000 4600 8500 4600
Wire Wire Line
	2500 4300 2500 4600
Wire Wire Line
	2500 4600 7000 4600
Wire Wire Line
	5500 4600 5500 4900
Text Notes 7900 2300 0 60 ~ 0
.tran 1n 100u startup
$EndSCHEMATC
