EESchema Schematic File Version 4
LIBS:power
LIBS:device
LIBS:Simulation_SPICE
EELAYER 29 0
EELAYER END
$Descr A4 11693 8268
Sheet 1 1
Title "Volume 2 Lesson 19 - Wiring Parasitics"
$EndDescr
$Comp
L Simulation_SPICE:VSOURCE V1
U 1 1 391900001
P 2500 4000
F 0 "V1" H 2630 4091 50 0000 L CNN
F 1 "3.3" H 2630 4000 50 0000 L CNN
	1    2500 4000
	1 0 0 -1
$EndComp
$Comp
L Device:R RSUP
U 1 1 391900002
P 4100 3000
F 0 "RSUP" V 3893 3000 50 0000 C CNN
F 1 "10m" V 3984 3000 50 0000 C CNN
	1    4100 3000
	0 1 1 0
$EndComp
$Comp
L Device:L LSUP
U 1 1 391900003
P 5500 3000
F 0 "LSUP" V 5690 3000 50 0000 C CNN
F 1 "3n" V 5599 3000 50 0000 C CNN
	1    5500 3000
	0 -1 -1 0
$EndComp
$Comp
L Device:C CLOCAL
U 1 1 391900004
P 7000 3900
F 0 "CLOCAL" H 7115 3946 50 0000 L CNN
F 1 "10u" H 7115 3855 50 0000 L CNN
	1    7000 3900
	1 0 0 -1
$EndComp
$Comp
L power:0 #PWR03901
U 1 1 391900005
P 5000 4900
F 0 "#PWR03901" H 5000 4650 50 0001 C CNN
F 1 "0" H 5005 4727 50 0000 C CNN
	1    5000 4900
	1 0 0 -1
$EndComp
Wire Wire Line
	2500 3700 2500 3000
Wire Wire Line
	2500 3000 3950 3000
Wire Wire Line
	4250 3000 5350 3000
Wire Wire Line
	5650 3000 7000 3000
Wire Wire Line
	7000 3000 7000 3750
Wire Wire Line
	7000 4050 7000 4600
Wire Wire Line
	7000 4600 2500 4600
Wire Wire Line
	2500 4600 2500 4300
Wire Wire Line
	5000 4600 5000 4900
Text Notes 7900 3000 0 60 ~ 0
.tran 1n 2u startup
$EndSCHEMATC
