EESchema Schematic File Version 4
LIBS:power
LIBS:device
LIBS:Simulation_SPICE
EELAYER 29 0
EELAYER END
$Descr A4 11693 8268
Sheet 1 1
Title "Volume 2 Lesson 23 - Hold-Up Energy"
$EndDescr
$Comp
L Simulation_SPICE:VPULSE VSRC
U 1 1 432300001
P 2500 4000
F 0 "VSRC" H 2630 4091 50 0000 L CNN
F 1 "source disconnect waveform" H 2630 4000 50 0000 L CNN
	1    2500 4000
	1 0 0 -1
$EndComp
$Comp
L Device:D D1
U 1 1 432300002
P 4500 3000
F 0 "D1" H 4500 2783 50 0000 C CNN
F 1 "DSH" H 4500 2874 50 0000 C CNN
	1    4500 3000
	-1 0 0 1
$EndComp
$Comp
L Device:C C1
U 1 1 432300003
P 6500 3900
F 0 "C1" H 6615 3946 50 0000 L CNN
F 1 "22m" H 6615 3855 50 0000 L CNN
	1    6500 3900
	1 0 0 -1
$EndComp
$Comp
L Device:R RLOAD
U 1 1 432300004
P 8000 3900
F 0 "RLOAD" H 8070 3946 50 0000 L CNN
F 1 "25" H 8070 3855 50 0000 L CNN
	1    8000 3900
	1 0 0 -1
$EndComp
$Comp
L power:0 #PWR04301
U 1 1 432300005
P 5200 4800
F 0 "#PWR04301" H 5200 4550 50 0001 C CNN
F 1 "0" H 5205 4627 50 0000 C CNN
	1    5200 4800
	1 0 0 -1
$EndComp
Wire Wire Line
	2500 3700 2500 3000
Wire Wire Line
	2500 3000 4350 3000
Wire Wire Line
	4650 3000 8000 3000
Wire Wire Line
	6500 3000 6500 3750
Wire Wire Line
	8000 3000 8000 3750
Wire Wire Line
	6500 4050 6500 4600
Wire Wire Line
	8000 4050 8000 4600
Wire Wire Line
	6500 4600 8000 4600
Wire Wire Line
	2500 4300 2500 4600
Wire Wire Line
	2500 4600 6500 4600
Wire Wire Line
	5200 4600 5200 4800
Text Notes 8200 2600 0 60 ~ 0
.tran 10u 150m startup
$EndSCHEMATC
