EESchema Schematic File Version 4
LIBS:Transistor_FET
EELAYER 29 0
EELAYER END
$Descr A4 11693 8268
Sheet 1 1
Title "Volume 4 Lesson 2 - Enhancement vs Depletion"
$EndDescr
$Comp
L Transistor_FET:Q_NMOS_GSD Q1
U 1 1 110200001
P 5000 3200
F 0 "Q1" H 5205 3246 50 0000 L CNN
F 1 "Enhancement NMOS" H 5205 3155 50 0000 L CNN
	1    5000 3200
	1 0 0 -1
$EndComp
Text Notes 7400 2800 0 60 ~ 0
.dc VGS -5 10 10m
$EndSCHEMATC
