EESchema Schematic File Version 4
LIBS:power
LIBS:device
EELAYER 29 0
EELAYER END
$Descr A4 11693 8268
Sheet 1 1
Title "Volume 2 Lesson 25 - Capacitor Charge Sharing"
$EndDescr
$Comp
L Device:C C1
U 1 1 452500001
P 3600 3900
F 0 "C1" H 3715 3946 50 0000 L CNN
F 1 "10u IC=10" H 3715 3855 50 0000 L CNN
	1    3600 3900
	1 0 0 -1
$EndComp
$Comp
L Device:R R1
U 1 1 452500002
P 5400 3000
F 0 "R1" V 5193 3000 50 0000 C CNN
F 1 "1" V 5284 3000 50 0000 C CNN
	1    5400 3000
	0 1 1 0
$EndComp
$Comp
L Device:C C2
U 1 1 452500003
P 7200 3900
F 0 "C2" H 7315 3946 50 0000 L CNN
F 1 "10u IC=0" H 7315 3855 50 0000 L CNN
	1    7200 3900
	1 0 0 -1
$EndComp
$Comp
L power:0 #PWR04501
U 1 1 452500004
P 5400 4800
F 0 "#PWR04501" H 5400 4550 50 0001 C CNN
F 1 "0" H 5405 4627 50 0000 C CNN
	1    5400 4800
	1 0 0 -1
$EndComp
Wire Wire Line
	3600 3000 5250 3000
Wire Wire Line
	5550 3000 7200 3000
Wire Wire Line
	3600 3000 3600 3750
Wire Wire Line
	7200 3000 7200 3750
Wire Wire Line
	3600 4050 3600 4600
Wire Wire Line
	7200 4050 7200 4600
Wire Wire Line
	3600 4600 7200 4600
Wire Wire Line
	5400 4600 5400 4800
Text Notes 7900 3000 0 60 ~ 0
.tran 1u 20m uic
$EndSCHEMATC
