EESchema Schematic File Version 4
LIBS:power
LIBS:device
LIBS:Simulation_SPICE
EELAYER 29 0
EELAYER END
$Descr A4 11693 8268
Sheet 1 1
Title "Volume 2 Lesson 28 - Rise Time and Settling"
$EndDescr
$Comp
L Simulation_SPICE:VPULSE V1
U 1 1 482800001
P 2500 3900
F 0 "V1" H 2630 3991 50 0000 L CNN
F 1 "PULSE(0 1 0 100n 100n 10m 20m)" H 2630 3900 50 0000 L CNN
	1    2500 3900
	1 0 0 -1
$EndComp
$Comp
L Device:R R1
U 1 1 482800002
P 4300 3000
F 0 "R1" V 4093 3000 50 0000 C CNN
F 1 "10k" V 4184 3000 50 0000 C CNN
	1    4300 3000
	0 1 1 0
$EndComp
$Comp
L Device:C C1
U 1 1 482800003
P 5600 3900
F 0 "C1" H 5715 3946 50 0000 L CNN
F 1 "10n" H 5715 3855 50 0000 L CNN
	1    5600 3900
	1 0 0 -1
$EndComp
$Comp
L Device:R R2
U 1 1 482800004
P 6900 3000
F 0 "R2" V 6693 3000 50 0000 C CNN
F 1 "10k" V 6784 3000 50 0000 C CNN
	1    6900 3000
	0 1 1 0
$EndComp
$Comp
L Device:C C2
U 1 1 482800005
P 8200 3900
F 0 "C2" H 8315 3946 50 0000 L CNN
F 1 "10n" H 8315 3855 50 0000 L CNN
	1    8200 3900
	1 0 0 -1
$EndComp
$Comp
L power:0 #PWR04801
U 1 1 482800006
P 5400 4800
F 0 "#PWR04801" H 5400 4550 50 0001 C CNN
F 1 "0" H 5405 4627 50 0000 C CNN
	1    5400 4800
	1 0 0 -1
$EndComp
Wire Wire Line
	2500 3600 2500 3000
Wire Wire Line
	2500 3000 4150 3000
Wire Wire Line
	4450 3000 6750 3000
Wire Wire Line
	5600 3000 5600 3750
Wire Wire Line
	7050 3000 8200 3000
Wire Wire Line
	8200 3000 8200 3750
Wire Wire Line
	5600 4050 5600 4600
Wire Wire Line
	8200 4050 8200 4600
Wire Wire Line
	5600 4600 8200 4600
Wire Wire Line
	2500 4200 2500 4600
Wire Wire Line
	2500 4600 5600 4600
Wire Wire Line
	5400 4600 5400 4800
Text Notes 8500 2700 0 60 ~ 0
.tran 1u 2m startup
Text Notes 8500 3000 0 60 ~ 0
.ac dec 100 10 10Meg
$EndSCHEMATC
