EESchema Schematic File Version 4
LIBS:power
LIBS:device
LIBS:Simulation_SPICE
EELAYER 29 0
EELAYER END
$Descr A4 11693 8268
Sheet 1 1
Title "Volume 3 Lesson 25 - Reverse Recovery"
$EndDescr
$Comp
L Simulation_SPICE:VSOURCE V1
U 1 1 852500001
P 2600 3900
F 0 "V1" H 2730 3991 50 0000 L CNN
F 1 "100" H 2730 3900 50 0000 L CNN
	1    2600 3900
	1 0 0 -1
$EndComp
$Comp
L Device:L LLOAD
U 1 1 852500002
P 4700 3000
F 0 "LLOAD" V 4890 3000 50 0000 C CNN
F 1 "100u" V 4799 3000 50 0000 C CNN
	1    4700 3000
	0 -1 -1 0
$EndComp
$Comp
L Device:D D1
U 1 1 852500003
P 6500 3900
F 0 "D1" V 6454 3980 50 0000 L CNN
F 1 "Recovery diode" V 6545 3980 50 0000 L CNN
	1    6500 3900
	0 1 1 0
$EndComp
Text Notes 7800 2800 0 60 ~ 0
.tran 200p 10u startup
$EndSCHEMATC
