EESchema Schematic File Version 4
LIBS:Transistor_FET
EELAYER 29 0
EELAYER END
$Descr A4 11693 8268
Sheet 1 1
Title "Volume 4 Lesson 4 - MOSFET Operating Regions"
$EndDescr
$Comp
L Transistor_FET:Q_NMOS_GSD Q1
U 1 1 110400001
P 5400 3200
F 0 "Q1" H 5605 3246 50 0000 L CNN
F 1 "NMOS" H 5605 3155 50 0000 L CNN
	1    5400 3200
	1 0 0 -1
$EndComp
Text Notes 7600 2800 0 60 ~ 0
.dc VDS 0 20 20m VGS 2 10 2
$EndSCHEMATC
