EESchema Schematic File Version 4
LIBS:power
LIBS:device
LIBS:Simulation_SPICE
EELAYER 29 0
EELAYER END
$Descr A4 11693 8268
Sheet 1 1
Title "Volume 3 Lesson 2 - Diode Load Line"
$EndDescr
$Comp
L Simulation_SPICE:VSOURCE V1
U 1 1 620200001
P 2700 3900
F 0 "V1" H 2830 3991 50 0000 L CNN
F 1 "5" H 2830 3900 50 0000 L CNN
	1    2700 3900
	1 0 0 -1
$EndComp
$Comp
L Device:R R1
U 1 1 620200002
P 4800 3000
F 0 "R1" V 4593 3000 50 0000 C CNN
F 1 "1k" V 4684 3000 50 0000 C CNN
	1    4800 3000
	0 1 1 0
$EndComp
$Comp
L Device:D D1
U 1 1 620200003
P 6800 3900
F 0 "D1" V 6754 3980 50 0000 L CNN
F 1 "DGEN" V 6845 3980 50 0000 L CNN
	1    6800 3900
	0 1 1 0
$EndComp
$Comp
L power:0 #PWR06201
U 1 1 620200004
P 5000 4800
F 0 "#PWR06201" H 5000 4550 50 0001 C CNN
F 1 "0" H 5005 4627 50 0000 C CNN
	1    5000 4800
	1 0 0 -1
$EndComp
Wire Wire Line
	2700 3600 2700 3000
Wire Wire Line
	2700 3000 4650 3000
Wire Wire Line
	4950 3000 6800 3000
Wire Wire Line
	6800 3000 6800 3750
Wire Wire Line
	6800 4050 6800 4600
Wire Wire Line
	6800 4600 2700 4600
Wire Wire Line
	2700 4600 2700 4200
Wire Wire Line
	5000 4600 5000 4800
Text Notes 7800 2800 0 60 ~ 0
.dc V1 0 5 10m
$EndSCHEMATC
