EESchema Schematic File Version 4
LIBS:power
LIBS:device
LIBS:Simulation_SPICE
EELAYER 29 0
EELAYER END
$Descr A4 11693 8268
Sheet 1 1
Title "Volume 2 Lesson 35 - Model Validation"
$EndDescr
$Comp
L Simulation_SPICE:VSOURCE V1
U 1 1 553500001
P 2600 3900
F 0 "V1" H 2730 3991 50 0000 L CNN
F 1 "AC 1" H 2730 3900 50 0000 L CNN
	1    2600 3900
	1 0 0 -1
$EndComp
$Comp
L Device:L LESL
U 1 1 553500002
P 4500 3000
F 0 "LESL" V 4690 3000 50 0000 C CNN
F 1 "1n" V 4599 3000 50 0000 C CNN
	1    4500 3000
	0 -1 -1 0
$EndComp
$Comp
L Device:R RESR
U 1 1 553500003
P 5900 3000
F 0 "RESR" V 5693 3000 50 0000 C CNN
F 1 "50m" V 5784 3000 50 0000 C CNN
	1    5900 3000
	0 1 1 0
$EndComp
$Comp
L Device:C C1
U 1 1 553500004
P 7300 3900
F 0 "C1" H 7415 3946 50 0000 L CNN
F 1 "10u" H 7415 3855 50 0000 L CNN
	1    7300 3900
	1 0 0 -1
$EndComp
$Comp
L power:0 #PWR05501
U 1 1 553500005
P 5200 4800
F 0 "#PWR05501" H 5200 4550 50 0001 C CNN
F 1 "0" H 5205 4627 50 0000 C CNN
	1    5200 4800
	1 0 0 -1
$EndComp
Wire Wire Line
	2600 3600 2600 3000
Wire Wire Line
	2600 3000 4350 3000
Wire Wire Line
	4650 3000 5750 3000
Wire Wire Line
	6050 3000 7300 3000
Wire Wire Line
	7300 3000 7300 3750
Wire Wire Line
	7300 4050 7300 4600
Wire Wire Line
	7300 4600 2600 4600
Wire Wire Line
	2600 4600 2600 4200
Wire Wire Line
	5200 4600 5200 4800
Text Notes 8000 2800 0 60 ~ 0
.ac dec 100 100 100Meg
$EndSCHEMATC
