EESchema Schematic File Version 4
LIBS:power
LIBS:device
LIBS:Simulation_SPICE
EELAYER 29 0
EELAYER END
$Descr A4 11693 8268
Sheet 1 1
Title "Volume 2 Lesson 15 - Snubber Design"
$EndDescr
$Comp
L Simulation_SPICE:VPULSE V1
U 1 1 351500001
P 2700 3800
F 0 "V1" H 2830 3891 50 0000 L CNN
F 1 "PULSE(0 48 0 2n 2n 500n 2u)" H 2830 3800 50 0000 L CNN
	1    2700 3800
	1 0 0 -1
$EndComp
$Comp
L Device:L LPAR
U 1 1 351500002
P 4700 3000
F 0 "LPAR" V 4890 3000 50 0000 C CNN
F 1 "100n" V 4799 3000 50 0000 C CNN
	1    4700 3000
	0 -1 -1 0
$EndComp
$Comp
L Device:C CPAR
U 1 1 351500003
P 6200 3900
F 0 "CPAR" H 6315 3946 50 0000 L CNN
F 1 "400p" H 6315 3855 50 0000 L CNN
	1    6200 3900
	1 0 0 -1
$EndComp
$Comp
L Device:R RSNUB
U 1 1 351500004
P 7600 3400
F 0 "RSNUB" H 7670 3446 50 0000 L CNN
F 1 "10" H 7670 3355 50 0000 L CNN
	1    7600 3400
	1 0 0 -1
$EndComp
$Comp
L Device:C CSNUB
U 1 1 351500005
P 7600 4200
F 0 "CSNUB" H 7715 4246 50 0000 L CNN
F 1 "1n" H 7715 4155 50 0000 L CNN
	1    7600 4200
	1 0 0 -1
$EndComp
$Comp
L power:0 #PWR03501
U 1 1 351500006
P 5200 5000
F 0 "#PWR03501" H 5200 4750 50 0001 C CNN
F 1 "0" H 5205 4827 50 0000 C CNN
	1    5200 5000
	1 0 0 -1
$EndComp
Wire Wire Line
	2700 3500 2700 3000
Wire Wire Line
	2700 3000 4550 3000
Wire Wire Line
	4850 3000 7600 3000
Wire Wire Line
	6200 3000 6200 3750
Wire Wire Line
	7600 3000 7600 3250
Wire Wire Line
	7600 3550 7600 4050
Wire Wire Line
	6200 4050 6200 4700
Wire Wire Line
	7600 4350 7600 4700
Wire Wire Line
	6200 4700 7600 4700
Wire Wire Line
	2700 4100 2700 4700
Wire Wire Line
	2700 4700 6200 4700
Wire Wire Line
	5200 4700 5200 5000
Text Notes 8200 2800 0 60 ~ 0
.tran 1n 5u startup
$EndSCHEMATC
