EESchema Schematic File Version 4
LIBS:power
LIBS:device
LIBS:Simulation_SPICE
EELAYER 29 0
EELAYER END
$Descr A4 11693 8268
Sheet 1 1
Title "Volume 3 Lesson 14 - Biased Clipper"
$EndDescr
$Comp
L Simulation_SPICE:VSIN V1
U 1 1 741400001
P 2400 3900
F 0 "V1" H 2530 3991 50 0000 L CNN
F 1 "SIN(0 8 1k)" H 2530 3900 50 0000 L CNN
	1    2400 3900
	1 0 0 -1
$EndComp
$Comp
L Device:R R1
U 1 1 741400002
P 4300 3000
F 0 "R1" V 4093 3000 50 0000 C CNN
F 1 "2.2k" V 4184 3000 50 0000 C CNN
	1    4300 3000
	0 1 1 0
$EndComp
$Comp
L Device:D DHI
U 1 1 741400003
P 6200 3600
F 0 "DHI" V 6154 3680 50 0000 L CNN
F 1 "DCL" V 6245 3680 50 0000 L CNN
	1    6200 3600
	0 1 1 0
$EndComp
$Comp
L Device:D DLO
U 1 1 741400004
P 7400 3600
F 0 "DLO" V 7446 3520 50 0000 R CNN
F 1 "DCL" V 7355 3520 50 0000 R CNN
	1    7400 3600
	0 -1 -1 0
$EndComp
$Comp
L power:0 #PWR07401
U 1 1 741400005
P 5000 4800
F 0 "#PWR07401" H 5000 4550 50 0001 C CNN
F 1 "0" H 5005 4627 50 0000 C CNN
	1    5000 4800
	1 0 0 -1
$EndComp
Wire Wire Line
	2400 3600 2400 3000
Wire Wire Line
	2400 3000 4150 3000
Wire Wire Line
	4450 3000 7400 3000
Wire Wire Line
	6200 3000 6200 3450
Wire Wire Line
	7400 3000 7400 3450
Wire Wire Line
	6200 3750 6200 4600
Wire Wire Line
	7400 3750 7400 4600
Wire Wire Line
	6200 4600 7400 4600
Wire Wire Line
	2400 4200 2400 4600
Wire Wire Line
	2400 4600 6200 4600
Wire Wire Line
	5000 4600 5000 4800
Text Notes 8000 2800 0 60 ~ 0
.tran 5u 10m startup
$EndSCHEMATC
