EESchema Schematic File Version 4
LIBS:power
LIBS:device
LIBS:Simulation_SPICE
EELAYER 29 0
EELAYER END
$Descr A4 11693 8268
Sheet 1 1
Title "Volume 3 Lesson 12 - Precision Rectifier"
$EndDescr
$Comp
L Simulation_SPICE:VSIN VIN
U 1 1 721200001
P 2700 3900
F 0 "VIN" H 2830 3991 50 0000 L CNN
F 1 "SIN(0 0.1 1k)" H 2830 3900 50 0000 L CNN
	1    2700 3900
	1 0 0 -1
$EndComp
$Comp
L Device:D D1
U 1 1 721200002
P 6200 3000
F 0 "D1" H 6200 2783 50 0000 C CNN
F 1 "DFAST" H 6200 2874 50 0000 C CNN
	1    6200 3000
	-1 0 0 1
$EndComp
$Comp
L Device:R RLOAD
U 1 1 721200003
P 7600 3900
F 0 "RLOAD" H 7670 3946 50 0000 L CNN
F 1 "10k" H 7670 3855 50 0000 L CNN
	1    7600 3900
	1 0 0 -1
$EndComp
$Comp
L power:0 #PWR07201
U 1 1 721200004
P 5000 4800
F 0 "#PWR07201" H 5000 4550 50 0001 C CNN
F 1 "0" H 5005 4627 50 0000 C CNN
	1    5000 4800
	1 0 0 -1
$EndComp
Wire Wire Line
	2700 3600 2700 3000
Wire Wire Line
	2700 3000 6050 3000
Wire Wire Line
	6350 3000 7600 3000
Wire Wire Line
	7600 3000 7600 3750
Wire Wire Line
	7600 4050 7600 4600
Wire Wire Line
	7600 4600 2700 4600
Wire Wire Line
	2700 4600 2700 4200
Wire Wire Line
	5000 4600 5000 4800
Text Notes 8000 2800 0 60 ~ 0
Op-amp behavioral feedback is in reference netlist.
Text Notes 8000 3100 0 60 ~ 0
.tran 1u 5m startup
$EndSCHEMATC
