EESchema Schematic File Version 4
LIBS:power
LIBS:device
LIBS:Simulation_SPICE
EELAYER 29 0
EELAYER END
$Descr A4 11693 8268
Sheet 1 1
Title "Volume 2 Lesson 33 - Source Termination"
$EndDescr
$Comp
L Simulation_SPICE:VPULSE V1
U 1 1 533300001
P 2500 3900
F 0 "V1" H 2630 3991 50 0000 L CNN
F 1 "PULSE(0 3.3 0 500p 500p 50n 100n)" H 2630 3900 50 0000 L CNN
	1    2500 3900
	1 0 0 -1
$EndComp
$Comp
L Device:R RDRV
U 1 1 533300002
P 4200 3000
F 0 "RDRV" V 3993 3000 50 0000 C CNN
F 1 "15" V 4084 3000 50 0000 C CNN
	1    4200 3000
	0 1 1 0
$EndComp
$Comp
L Device:R RSER
U 1 1 533300003
P 5700 3000
F 0 "RSER" V 5493 3000 50 0000 C CNN
F 1 "35" V 5584 3000 50 0000 C CNN
	1    5700 3000
	0 1 1 0
$EndComp
$Comp
L Device:R RLOAD
U 1 1 533300004
P 7600 3900
F 0 "RLOAD" H 7670 3946 50 0000 L CNN
F 1 "1Meg" H 7670 3855 50 0000 L CNN
	1    7600 3900
	1 0 0 -1
$EndComp
$Comp
L power:0 #PWR05301
U 1 1 533300005
P 5200 4800
F 0 "#PWR05301" H 5200 4550 50 0001 C CNN
F 1 "0" H 5205 4627 50 0000 C CNN
	1    5200 4800
	1 0 0 -1
$EndComp
Wire Wire Line
	2500 3600 2500 3000
Wire Wire Line
	2500 3000 4050 3000
Wire Wire Line
	4350 3000 5550 3000
Wire Wire Line
	5850 3000 7600 3000
Wire Wire Line
	7600 3000 7600 3750
Wire Wire Line
	7600 4050 7600 4600
Wire Wire Line
	7600 4600 2500 4600
Wire Wire Line
	2500 4600 2500 4200
Wire Wire Line
	5200 4600 5200 4800
Text Notes 8000 2700 0 60 ~ 0
T1 LINEIN 0 LOAD 0 Z0=50 TD=10n
Text Notes 8000 3000 0 60 ~ 0
.tran 100p 100n startup
$EndSCHEMATC
