EESchema Schematic File Version 4
LIBS:power
LIBS:device
LIBS:Simulation_SPICE
EELAYER 29 0
EELAYER END
$Descr A4 11693 8268
Sheet 1 1
Title "Volume 3 Lesson 3 - Real Diode Comparison"
$EndDescr
$Comp
L Simulation_SPICE:VPULSE V1
U 1 1 630300001
P 2500 3900
F 0 "V1" H 2630 3991 50 0000 L CNN
F 1 "PULSE(0 12 0 50n 50n 2u 5u)" H 2630 3900 50 0000 L CNN
	1    2500 3900
	1 0 0 -1
$EndComp
$Comp
L Device:R R1
U 1 1 630300002
P 4300 3000
F 0 "R1" V 4093 3000 50 0000 C CNN
F 1 "10" V 4184 3000 50 0000 C CNN
	1    4300 3000
	0 1 1 0
$EndComp
$Comp
L Device:D D1
U 1 1 630300003
P 6200 3900
F 0 "D1" V 6154 3980 50 0000 L CNN
F 1 "DSIL" V 6245 3980 50 0000 L CNN
	1    6200 3900
	0 1 1 0
$EndComp
$Comp
L power:0 #PWR06301
U 1 1 630300004
P 5000 4800
F 0 "#PWR06301" H 5000 4550 50 0001 C CNN
F 1 "0" H 5005 4627 50 0000 C CNN
	1    5000 4800
	1 0 0 -1
$EndComp
Wire Wire Line
	2500 3600 2500 3000
Wire Wire Line
	2500 3000 4150 3000
Wire Wire Line
	4450 3000 6200 3000
Wire Wire Line
	6200 3000 6200 3750
Wire Wire Line
	6200 4050 6200 4600
Wire Wire Line
	6200 4600 2500 4600
Wire Wire Line
	2500 4600 2500 4200
Wire Wire Line
	5000 4600 5000 4800
Text Notes 7600 2800 0 60 ~ 0
.tran 20n 50u startup
$EndSCHEMATC
