EESchema Schematic File Version 4
LIBS:power
LIBS:device
LIBS:Simulation_SPICE
EELAYER 29 0
EELAYER END
$Descr A4 11693 8268
Sheet 1 1
Title "Volume 2 Lesson 40 - Final Capstone Rail Section"
$EndDescr
$Comp
L Simulation_SPICE:VSOURCE VREG
U 1 1 604000001
P 2500 3900
F 0 "VREG" H 2630 3991 50 0000 L CNN
F 1 "5" H 2630 3900 50 0000 L CNN
	1    2500 3900
	1 0 0 -1
$EndComp
$Comp
L Device:R RSRC
U 1 1 604000002
P 4200 3000
F 0 "RSRC" V 3993 3000 50 0000 C CNN
F 1 "25m" V 4084 3000 50 0000 C CNN
	1    4200 3000
	0 1 1 0
$EndComp
$Comp
L Device:L LSRC
U 1 1 604000003
P 5600 3000
F 0 "LSRC" V 5790 3000 50 0000 C CNN
F 1 "3n" V 5699 3000 50 0000 C CNN
	1    5600 3000
	0 -1 -1 0
$EndComp
$Comp
L Device:R RESR
U 1 1 604000004
P 6900 3000
F 0 "RESR" V 6693 3000 50 0000 C CNN
F 1 "{20m*ESRAGE}" V 6784 3000 50 0000 C CNN
	1    6900 3000
	0 1 1 0
$EndComp
$Comp
L Device:C CLOCAL
U 1 1 604000005
P 8300 3900
F 0 "CLOCAL" H 8415 3946 50 0000 L CNN
F 1 "{1000u*CAGE}" H 8415 3855 50 0000 L CNN
	1    8300 3900
	1 0 0 -1
$EndComp
$Comp
L power:0 #PWR06001
U 1 1 604000006
P 5400 4800
F 0 "#PWR06001" H 5400 4550 50 0001 C CNN
F 1 "0" H 5405 4627 50 0000 C CNN
	1    5400 4800
	1 0 0 -1
$EndComp
Wire Wire Line
	2500 3600 2500 3000
Wire Wire Line
	2500 3000 4050 3000
Wire Wire Line
	4350 3000 5450 3000
Wire Wire Line
	5750 3000 6750 3000
Wire Wire Line
	7050 3000 8300 3000
Wire Wire Line
	8300 3000 8300 3750
Wire Wire Line
	8300 4050 8300 4600
Wire Wire Line
	8300 4600 2500 4600
Wire Wire Line
	2500 4600 2500 4200
Wire Wire Line
	5400 4600 5400 4800
Text Notes 8300 2400 0 60 ~ 0
.param CAGE=0.7 ESRAGE=2
Text Notes 8300 2700 0 60 ~ 0
.tran 1n 120u startup
$EndSCHEMATC
