EESchema Schematic File Version 4
LIBS:power
LIBS:device
LIBS:Simulation_SPICE
EELAYER 29 0
EELAYER END
$Descr A4 11693 8268
Sheet 1 1
Title "Volume 3 Lesson 8 - Zener Shunt Regulator"
$EndDescr
$Comp
L Simulation_SPICE:VSOURCE V1
U 1 1 680800001
P 2600 3900
F 0 "V1" H 2730 3991 50 0000 L CNN
F 1 "12" H 2730 3900 50 0000 L CNN
	1    2600 3900
	1 0 0 -1
$EndComp
$Comp
L Device:R R1
U 1 1 680800002
P 4700 3000
F 0 "R1" V 4493 3000 50 0000 C CNN
F 1 "470" V 4584 3000 50 0000 C CNN
	1    4700 3000
	0 1 1 0
$EndComp
$Comp
L Device:D_Zener DZ
U 1 1 680800003
P 6800 3900
F 0 "DZ" V 6754 3980 50 0000 L CNN
F 1 "5.1V" V 6845 3980 50 0000 L CNN
	1    6800 3900
	0 1 1 0
$EndComp
$Comp
L power:0 #PWR06801
U 1 1 680800004
P 5000 4800
F 0 "#PWR06801" H 5000 4550 50 0001 C CNN
F 1 "0" H 5005 4627 50 0000 C CNN
	1    5000 4800
	1 0 0 -1
$EndComp
Wire Wire Line
	2600 3600 2600 3000
Wire Wire Line
	2600 3000 4550 3000
Wire Wire Line
	4850 3000 6800 3000
Wire Wire Line
	6800 3000 6800 3750
Wire Wire Line
	6800 4050 6800 4600
Wire Wire Line
	6800 4600 2600 4600
Wire Wire Line
	2600 4600 2600 4200
Wire Wire Line
	5000 4600 5000 4800
Text Notes 7900 2800 0 60 ~ 0
.dc V1 6 15 10m
$EndSCHEMATC
