EESchema Schematic File Version 4
LIBS:power
LIBS:device
LIBS:Simulation_SPICE
EELAYER 29 0
EELAYER END
$Descr A4 11693 8268
Sheet 1 1
Title "Volume 2 Lesson 38 - Aging and Reliability"
$EndDescr
$Comp
L Simulation_SPICE:VSOURCE VREG
U 1 1 583800001
P 2500 3900
F 0 "VREG" H 2630 3991 50 0000 L CNN
F 1 "12" H 2630 3900 50 0000 L CNN
	1    2500 3900
	1 0 0 -1
$EndComp
$Comp
L Device:R RESR
U 1 1 583800002
P 5000 3000
F 0 "RESR" V 4793 3000 50 0000 C CNN
F 1 "{80m*ESRAGE}" V 4884 3000 50 0000 C CNN
	1    5000 3000
	0 1 1 0
$EndComp
$Comp
L Device:C C1
U 1 1 583800003
P 7000 3900
F 0 "C1" H 7115 3946 50 0000 L CNN
F 1 "{1000u*CAGE}" H 7115 3855 50 0000 L CNN
	1    7000 3900
	1 0 0 -1
$EndComp
$Comp
L power:0 #PWR05801
U 1 1 583800004
P 5000 4800
F 0 "#PWR05801" H 5000 4550 50 0001 C CNN
F 1 "0" H 5005 4627 50 0000 C CNN
	1    5000 4800
	1 0 0 -1
$EndComp
Wire Wire Line
	2500 3600 2500 3000
Wire Wire Line
	2500 3000 4850 3000
Wire Wire Line
	5150 3000 7000 3000
Wire Wire Line
	7000 3000 7000 3750
Wire Wire Line
	7000 4050 7000 4600
Wire Wire Line
	7000 4600 2500 4600
Wire Wire Line
	2500 4600 2500 4200
Wire Wire Line
	5000 4600 5000 4800
Text Notes 7900 2700 0 60 ~ 0
.param CAGE=0.7 ESRAGE=2
Text Notes 7900 3000 0 60 ~ 0
.tran 10n 150u startup
$EndSCHEMATC
