EESchema Schematic File Version 4
LIBS:power
LIBS:device
LIBS:Simulation_SPICE
EELAYER 29 0
EELAYER END
$Descr A4 11693 8268
Sheet 1 1
Title "Volume 2 Lesson 20 - Probe Loading"
$EndDescr
$Comp
L Simulation_SPICE:VPULSE V1
U 1 1 402000001
P 2600 3900
F 0 "V1" H 2730 3991 50 0000 L CNN
F 1 "PULSE(0 12 0 1n 1n 100n 500n)" H 2730 3900 50 0000 L CNN
	1    2600 3900
	1 0 0 -1
$EndComp
$Comp
L Device:L L1
U 1 1 402000002
P 4600 3000
F 0 "L1" V 4790 3000 50 0000 C CNN
F 1 "47n" V 4699 3000 50 0000 C CNN
	1    4600 3000
	0 -1 -1 0
$EndComp
$Comp
L Device:C C1
U 1 1 402000003
P 6200 3900
F 0 "C1" H 6315 3946 50 0000 L CNN
F 1 "600p" H 6315 3855 50 0000 L CNN
	1    6200 3900
	1 0 0 -1
$EndComp
$Comp
L Device:L LPG
U 1 1 402000004
P 7600 3000
F 0 "LPG" V 7790 3000 50 0000 C CNN
F 1 "40n" V 7699 3000 50 0000 C CNN
	1    7600 3000
	0 -1 -1 0
$EndComp
$Comp
L Device:C CPROBE
U 1 1 402000005
P 8600 3900
F 0 "CPROBE" H 8715 3946 50 0000 L CNN
F 1 "10p" H 8715 3855 50 0000 L CNN
	1    8600 3900
	1 0 0 -1
$EndComp
$Comp
L power:0 #PWR04001
U 1 1 402000006
P 5400 4900
F 0 "#PWR04001" H 5400 4650 50 0001 C CNN
F 1 "0" H 5405 4727 50 0000 C CNN
	1    5400 4900
	1 0 0 -1
$EndComp
Wire Wire Line
	2600 3600 2600 3000
Wire Wire Line
	2600 3000 4450 3000
Wire Wire Line
	4750 3000 7450 3000
Wire Wire Line
	6200 3000 6200 3750
Wire Wire Line
	7750 3000 8600 3000
Wire Wire Line
	8600 3000 8600 3750
Wire Wire Line
	6200 4050 6200 4600
Wire Wire Line
	8600 4050 8600 4600
Wire Wire Line
	6200 4600 8600 4600
Wire Wire Line
	2600 4200 2600 4600
Wire Wire Line
	2600 4600 6200 4600
Wire Wire Line
	5400 4600 5400 4900
Text Notes 8000 2300 0 60 ~ 0
.tran 100p 2u startup
$EndSCHEMATC
