EESchema Schematic File Version 4
LIBS:power
LIBS:device
LIBS:Simulation_SPICE
EELAYER 29 0
EELAYER END
$Descr A4 11693 8268
Sheet 1 1
Title "Volume 2 Lesson 31 - Multiple Time Constants"
$EndDescr
$Comp
L Simulation_SPICE:VPULSE V1
U 1 1 513100001
P 2500 3900
F 0 "V1" H 2630 3991 50 0000 L CNN
F 1 "PULSE(0 5 0 1u 1u 1s 2s)" H 2630 3900 50 0000 L CNN
	1    2500 3900
	1 0 0 -1
$EndComp
$Comp
L Device:R R1
U 1 1 513100002
P 4200 3000
F 0 "R1" V 3993 3000 50 0000 C CNN
F 1 "1k" V 4084 3000 50 0000 C CNN
	1    4200 3000
	0 1 1 0
$EndComp
$Comp
L Device:C C1
U 1 1 513100003
P 5500 3900
F 0 "C1" H 5615 3946 50 0000 L CNN
F 1 "100n" H 5615 3855 50 0000 L CNN
	1    5500 3900
	1 0 0 -1
$EndComp
$Comp
L Device:R R2
U 1 1 513100004
P 6800 3000
F 0 "R2" V 6593 3000 50 0000 C CNN
F 1 "100k" V 6684 3000 50 0000 C CNN
	1    6800 3000
	0 1 1 0
$EndComp
$Comp
L Device:C C2
U 1 1 513100005
P 8100 3900
F 0 "C2" H 8215 3946 50 0000 L CNN
F 1 "1u" H 8215 3855 50 0000 L CNN
	1    8100 3900
	1 0 0 -1
$EndComp
$Comp
L power:0 #PWR05101
U 1 1 513100006
P 5300 4800
F 0 "#PWR05101" H 5300 4550 50 0001 C CNN
F 1 "0" H 5305 4627 50 0000 C CNN
	1    5300 4800
	1 0 0 -1
$EndComp
Wire Wire Line
	2500 3600 2500 3000
Wire Wire Line
	2500 3000 4050 3000
Wire Wire Line
	4350 3000 6650 3000
Wire Wire Line
	5500 3000 5500 3750
Wire Wire Line
	6950 3000 8100 3000
Wire Wire Line
	8100 3000 8100 3750
Wire Wire Line
	5500 4050 5500 4600
Wire Wire Line
	8100 4050 8100 4600
Wire Wire Line
	5500 4600 8100 4600
Wire Wire Line
	2500 4200 2500 4600
Wire Wire Line
	2500 4600 5500 4600
Wire Wire Line
	5300 4600 5300 4800
Text Notes 8500 2800 0 60 ~ 0
.tran 1u 1s startup
$EndSCHEMATC
