EESchema Schematic File Version 4
LIBS:power
LIBS:device
LIBS:Simulation_SPICE
EELAYER 29 0
EELAYER END
$Descr A4 11693 8268
Sheet 1 1
Title "Volume 2 Lesson 36 - Passive Interface Capstone"
$EndDescr
$Comp
L Simulation_SPICE:VPULSE V1
U 1 1 563600001
P 2500 3900
F 0 "V1" H 2630 3991 50 0000 L CNN
F 1 "PULSE(0 3.3 0 1n 1n 100n 200n)" H 2630 3900 50 0000 L CNN
	1    2500 3900
	1 0 0 -1
$EndComp
$Comp
L Device:R RDRV
U 1 1 563600002
P 4100 3000
F 0 "RDRV" V 3893 3000 50 0000 C CNN
F 1 "18" V 3984 3000 50 0000 C CNN
	1    4100 3000
	0 1 1 0
$EndComp
$Comp
L Device:R RSER
U 1 1 563600003
P 5500 3000
F 0 "RSER" V 5293 3000 50 0000 C CNN
F 1 "33" V 5384 3000 50 0000 C CNN
	1    5500 3000
	0 1 1 0
$EndComp
$Comp
L Device:R RLOAD
U 1 1 563600004
P 7600 3900
F 0 "RLOAD" H 7670 3946 50 0000 L CNN
F 1 "1Meg" H 7670 3855 50 0000 L CNN
	1    7600 3900
	1 0 0 -1
$EndComp
$Comp
L Device:C CLOAD
U 1 1 563600005
P 8700 3900
F 0 "CLOAD" H 8815 3946 50 0000 L CNN
F 1 "8p" H 8815 3855 50 0000 L CNN
	1    8700 3900
	1 0 0 -1
$EndComp
$Comp
L power:0 #PWR05601
U 1 1 563600006
P 5200 4800
F 0 "#PWR05601" H 5200 4550 50 0001 C CNN
F 1 "0" H 5205 4627 50 0000 C CNN
	1    5200 4800
	1 0 0 -1
$EndComp
Wire Wire Line
	2500 3600 2500 3000
Wire Wire Line
	2500 3000 3950 3000
Wire Wire Line
	4250 3000 5350 3000
Wire Wire Line
	5650 3000 8700 3000
Wire Wire Line
	7600 3000 7600 3750
Wire Wire Line
	8700 3000 8700 3750
Wire Wire Line
	7600 4050 7600 4600
Wire Wire Line
	8700 4050 8700 4600
Wire Wire Line
	7600 4600 8700 4600
Wire Wire Line
	2500 4200 2500 4600
Wire Wire Line
	2500 4600 7600 4600
Wire Wire Line
	5200 4600 5200 4800
Text Notes 8000 2400 0 60 ~ 0
T1 LINEIN 0 LOAD 0 Z0=50 TD=10n
Text Notes 8000 2700 0 60 ~ 0
.tran 100p 300n startup
$EndSCHEMATC
