EESchema Schematic File Version 4
LIBS:power
LIBS:device
LIBS:Simulation_SPICE
EELAYER 29 0
EELAYER END
$Descr A4 11693 8268
Sheet 1 1
Title "Volume 3 Lesson 13 - Diode Clipper"
$EndDescr
$Comp
L Simulation_SPICE:VSIN V1
U 1 1 731300001
P 2500 3900
F 0 "V1" H 2630 3991 50 0000 L CNN
F 1 "SIN(0 10 1k)" H 2630 3900 50 0000 L CNN
	1    2500 3900
	1 0 0 -1
$EndComp
$Comp
L Device:R R1
U 1 1 731300002
P 4500 3000
F 0 "R1" V 4293 3000 50 0000 C CNN
F 1 "1k" V 4384 3000 50 0000 C CNN
	1    4500 3000
	0 1 1 0
$EndComp
$Comp
L Device:D D1
U 1 1 731300003
P 6500 3900
F 0 "D1" V 6454 3980 50 0000 L CNN
F 1 "DSI" V 6545 3980 50 0000 L CNN
	1    6500 3900
	0 1 1 0
$EndComp
$Comp
L Device:D D2
U 1 1 731300004
P 7600 3900
F 0 "D2" V 7646 3820 50 0000 R CNN
F 1 "DSI" V 7555 3820 50 0000 R CNN
	1    7600 3900
	0 -1 -1 0
$EndComp
$Comp
L power:0 #PWR07301
U 1 1 731300005
P 5000 4800
F 0 "#PWR07301" H 5000 4550 50 0001 C CNN
F 1 "0" H 5005 4627 50 0000 C CNN
	1    5000 4800
	1 0 0 -1
$EndComp
Wire Wire Line
	2500 3600 2500 3000
Wire Wire Line
	2500 3000 4350 3000
Wire Wire Line
	4650 3000 7600 3000
Wire Wire Line
	6500 3000 6500 3750
Wire Wire Line
	7600 3000 7600 3750
Wire Wire Line
	6500 4050 6500 4600
Wire Wire Line
	7600 4050 7600 4600
Wire Wire Line
	6500 4600 7600 4600
Wire Wire Line
	2500 4200 2500 4600
Wire Wire Line
	2500 4600 6500 4600
Wire Wire Line
	5000 4600 5000 4800
Text Notes 8000 2800 0 60 ~ 0
.tran 10u 10m startup
$EndSCHEMATC
