EESchema Schematic File Version 4
LIBS:power
LIBS:device
LIBS:Simulation_SPICE
EELAYER 29 0
EELAYER END
$Descr A4 11693 8268
Sheet 1 1
Title "Volume 2 Lesson 29 - AC Coupling"
$EndDescr
$Comp
L Simulation_SPICE:VPULSE V1
U 1 1 492900001
P 2500 3900
F 0 "V1" H 2630 3991 50 0000 L CNN
F 1 "PULSE(0 3.3 0 100n 100n 2m 100m)" H 2630 3900 50 0000 L CNN
	1    2500 3900
	1 0 0 -1
$EndComp
$Comp
L Device:C C1
U 1 1 492900002
P 4700 3000
F 0 "C1" V 4448 3000 50 0000 C CNN
F 1 "1u" V 4539 3000 50 0000 C CNN
	1    4700 3000
	0 1 1 0
$EndComp
$Comp
L Device:R RLOAD
U 1 1 492900003
P 6800 3900
F 0 "RLOAD" H 6870 3946 50 0000 L CNN
F 1 "47k" H 6870 3855 50 0000 L CNN
	1    6800 3900
	1 0 0 -1
$EndComp
$Comp
L Simulation_SPICE:VSOURCE VBIAS
U 1 1 492900004
P 8200 3900
F 0 "VBIAS" H 8330 3991 50 0000 L CNN
F 1 "1.65" H 8330 3900 50 0000 L CNN
	1    8200 3900
	1 0 0 -1
$EndComp
$Comp
L power:0 #PWR04901
U 1 1 492900005
P 5400 4800
F 0 "#PWR04901" H 5400 4550 50 0001 C CNN
F 1 "0" H 5405 4627 50 0000 C CNN
	1    5400 4800
	1 0 0 -1
$EndComp
Wire Wire Line
	2500 3600 2500 3000
Wire Wire Line
	2500 3000 4550 3000
Wire Wire Line
	4850 3000 6800 3000
Wire Wire Line
	6800 3000 6800 3750
Wire Wire Line
	6800 4050 6800 4600
Wire Wire Line
	8200 3600 8200 3000
Wire Wire Line
	8200 3000 6800 3000
Wire Wire Line
	8200 4200 8200 4600
Wire Wire Line
	6800 4600 8200 4600
Wire Wire Line
	2500 4200 2500 4600
Wire Wire Line
	2500 4600 6800 4600
Wire Wire Line
	5400 4600 5400 4800
Text Notes 8500 2700 0 60 ~ 0
.tran 10u 300m startup
$EndSCHEMATC
